Circuit: * C:\Users\molso\OneDrive\Pulpit\LABY semest7\SEZON2022\sim\Draft1.asc

Direct Newton iteration for .op point succeeded.

Date: Wed Apr 06 19:09:31 2022
Total elapsed time: 0.223 seconds.

tnom = 27
temp = 27
method = modified trap
totiter = 3517
traniter = 3514
tranpoints = 1758
accept = 1366
rejected = 392
matrix size = 11
fillins = 0
solver = Normal
Matrix Compiler1: 342 bytes object code size  0.3/0.2/[0.1]
Matrix Compiler2: 773 bytes object code size  0.2/0.4/[0.2]

