Circuit: * C:\Users\molso\OneDrive\Pulpit\LABY semest7\SEZON2022\sim\Draft2.asc


Date: Mon Apr 11 21:01:28 2022
Total elapsed time: 0.055 seconds.

tnom = 27
temp = 27
method = trap
totiter = 0
traniter = 0
tranpoints = 0
accept = 0
rejected = 0
matrix size = 3
fillins = 1
solver = Normal

