Circuit: * D:\Motorsport\PUTM_EV_Data_Acquisition_Cards_2022\sim\Draft7.asc


Date: Thu Sep 15 12:25:39 2022
Total elapsed time: 0.037 seconds.

tnom = 27
temp = 27
method = trap
totiter = 0
traniter = 0
tranpoints = 0
accept = 0
rejected = 0
matrix size = 3
fillins = 1
solver = Normal

