Circuit: * C:\Users\molso\OneDrive\Pulpit\LABY semest7\SEZON2022\sim\Draft3.asc

WARNING: Less than two connections to node N002.  This node is used by R1.
Direct Newton iteration for .op point succeeded.

Date: Thu Apr 07 13:32:42 2022
Total elapsed time: 0.038 seconds.

tnom = 27
temp = 27
method = modified trap
totiter = 2097
traniter = 2094
tranpoints = 1048
accept = 1048
rejected = 0
matrix size = 3
fillins = 0
solver = Normal
Matrix Compiler1: 50 bytes object code size  0.1/0.1/[0.1]
Matrix Compiler2: 175 bytes object code size  0.1/0.1/[0.1]

