Circuit: * C:\Users\molso\OneDrive\Pulpit\LABY semest7\SEZON2022\sim\inverting amp with voltage repeater.asc

Direct Newton iteration failed to find .op point.  (Use ".option noopiter" to skip.)
Starting Gmin stepping
Gmin = 10
Gmin = 1.07374
Gmin = 0.115292
Gmin = 0.0123794
Gmin = 0.00132923
Gmin = 0.000142725
Gmin = 1.5325e-005
Gmin = 1.6455e-006
Gmin = 1.76685e-007
Gmin = 1.89714e-008
Gmin = 2.03704e-009
Gmin = 2.18725e-010
Gmin = 2.34854e-011
Gmin = 2.52173e-012
Gmin = 2.70769e-013
Gmin = 0
Gmin stepping succeeded in finding the operating point.

.step r2=4 r1=4
.step r2=1000 r1=4
.step r2=2000 r1=4
.step r2=3000 r1=4
.step r2=4 r1=1004
.step r2=1000 r1=1004
.step r2=2000 r1=1004
.step r2=3000 r1=1004
.step r2=4 r1=2004
.step r2=1000 r1=2004
.step r2=2000 r1=2004
.step r2=3000 r1=2004
.step r2=4 r1=3000
.step r2=1000 r1=3000
.step r2=2000 r1=3000
.step r2=3000 r1=3000


Measurement: ymax
  step	MAX(v(out))	FROM	TO
     1	0.2	0	0.07
     2	3.26611	0	0.07
     3	3.28301	0	0.07
     4	3.28865	0	0.07
     5	3.26521	0	0.07
     6	3.28301	0	0.07
     7	3.28865	0	0.07
     8	3.29148	0	0.07
     9	3.28202	0	0.07
    10	3.28865	0	0.07
    11	3.29148	0	0.07
    12	3.29318	0	0.07
    13	3.28769	0	0.07
    14	3.29147	0	0.07
    15	3.29317	0	0.07
    16	3.29431	0	0.07


Date: Sun May 22 14:40:08 2022
Total elapsed time: 0.626 seconds.

tnom = 27
temp = 27
method = modified trap
totiter = 2994
traniter = 2601
tranpoints = 1166
accept = 1121
rejected = 45
matrix size = 14
fillins = 2
solver = Normal
Matrix Compiler1: 618 bytes object code size  0.2/0.1/[0.1]
Matrix Compiler2: 1.13 KB object code size  0.2/0.3/[0.2]

