Circuit: * C:\Users\molso\OneDrive\Pulpit\LABY semest7\SEZON2022\hardware\output_sim.asc

Limiting rise time of source v1 to 0.1
Limiting fall time of source v1 to 0.1
Direct Newton iteration for .op point succeeded.

Date: Thu Dec 02 16:35:23 2021
Total elapsed time: 0.116 seconds.

tnom = 27
temp = 27
method = modified trap
totiter = 5236
traniter = 5231
tranpoints = 1961
accept = 1700
rejected = 261
matrix size = 14
fillins = 2
solver = Normal
Matrix Compiler1: 902 bytes object code size  0.3/0.2/[0.2]
Matrix Compiler2: off  [0.2]/0.3/0.2

