Circuit: * C:\Users\molso\OneDrive\Pulpit\LABY semest7\SEZON2022\sim\suspenson.asc

Direct Newton iteration for .op point succeeded.

Date: Thu Apr 07 12:26:02 2022
Total elapsed time: 0.110 seconds.

tnom = 27
temp = 27
method = modified trap
totiter = 2097
traniter = 2094
tranpoints = 1048
accept = 1048
rejected = 0
matrix size = 10
fillins = 2
solver = Normal
Matrix Compiler1: 604 bytes object code size  0.4/0.2/[0.2]
Matrix Compiler2: 816 bytes object code size  0.2/0.4/[0.2]

